EVs_20kW/Output_EVs_20kW/output_current_1.csv
# Output_EVs_20kW\output_current_1.csv run at 2000-01-01 00:01:00 EST on 907 links
link_name,currA_mag,currA_angle,currB_mag,currB_angle,currC_mag,currC_angle
Source_Impedance,77.039191,-0.275173,55.940831,3.648278,54.296722,2.054026
TR1,77.039191,-0.275173,55.940831,3.648278,54.296722,2.054026
LINE1,1951.250656,-0.720856,1957.622443,3.310548,965.404740,1.243451
LINE2,1951.250656,-0.720856,1957.622443,3.310548,965.404740,1.243451
LINE3,1951.250656,-0.720856,1957.622443,3.310548,965.404740,1.243451
LINE4,1951.250656,-0.720856,1957.622443,3.310548,965.404740,1.243451
LINE5,1951.250656,-0.720856,1957.622443,3.310548,965.404740,1.243451
LINE6,1951.250656,-0.720856,1957.622443,3.310548,965.404740,1.243451
LINE7,1951.250656,-0.720856,1957.622443,3.310548,965.404740,1.243451
LINE8,1951.250656,-0.720856,1957.622443,3.310548,965.404740,1.243451
LINE9,1951.250656,-0.720856,1957.622443,3.310548,965.404740,1.243451
LINE10,1951.250656,-0.720856,1957.622443,3.310548,965.404740,1.243451
LINE11,1951.250656,-0.720856,1957.622443,3.310548,965.404740,1.243451
LINE12,1951.250656,-0.720856,1957.622443,3.310548,965.404740,1.243451
LINE13,1951.250656,-0.720856,1957.622443,3.310548,965.404740,1.243451
LINE14,1951.250656,-0.720856,1957.622443,3.310548,965.404740,1.243451
LINE15,0.000000,3.387608,0.000000,3.281809,0.000000,1.559535
LINE16,1951.250656,-0.720856,1957.622443,3.310548,965.404740,1.243451
LINE17,0.000000,3.241016,0.000000,3.314056,0.000000,1.545864
LINE18,1951.250656,-0.720856,1957.622443,3.310548,965.404740,1.243451
LINE19,0.000000,3.016992,0.000000,3.361639,0.000000,1.545864
LINE20,1951.250656,-0.720856,1957.622443,3.310548,965.404740,1.243451
LINE21,0.000000,3.016992,0.000000,3.475431,0.000000,1.514625
LINE22,1951.250656,-0.720856,1957.622443,3.310548,965.404740,1.243451
LINE23,0.000000,2.992306,0.000000,3.580308,0.000000,1.538052
LINE24,1951.250656,-0.720856,1957.622443,3.310548,965.404740,1.243451
LINE25,0.000000,2.871682,0.000000,3.687998,0.000000,1.556281
LINE26,129.256433,-0.837242,0.000000,3.851043,0.000000,1.588126
LINE27,1822.930453,-0.712622,1957.622443,3.310548,965.404740,1.243451
LINE28,0.000000,3.361639,0.000000,3.580308,0.000000,1.545864
LINE29,64.613666,-0.837297,0.000000,3.264729,0.000000,-1.448320
LINE30,64.642767,-0.837186,0.000000,3.851592,0.000000,1.593218
LINE31,1822.930453,-0.712622,1957.622443,3.310548,965.404740,1.243451
LINE32,0.000000,4.687457,0.000000,3.638495,0.000000,1.555807
LINE33,64.613666,-0.837297,0.000000,-0.271998,0.000000,1.575050
LINE34,64.642767,-0.837186,0.000000,3.501574,0.000000,1.568945
LINE35,0.000000,-0.226345,139.583591,3.328274,0.000000,-1.525271
LINE36,1822.930453,-0.712622,1818.062464,3.309187,965.404740,1.243451
LINE37,0.000000,4.687457,0.000000,3.601139,0.000000,1.558364
LINE38,64.642767,-0.837186,0.000000,-1.172533,0.000000,1.561824
LINE39,0.000000,-0.192714,69.795624,3.328287,0.000000,-1.517177
LINE40,0.000000,2.296007,69.787967,3.328260,0.000000,4.700812
LINE41,1822.930453,-0.712622,1818.062464,3.309187,965.404740,1.243451
LINE42,0.000000,0.694134,0.000000,2.078826,0.000000,3.215173
LINE43,0.000000,0.438716,0.000000,3.675260,0.000000,1.553677
LINE44,64.642767,-0.837186,0.000000,3.484924,0.000000,1.611790
LINE45,0.000000,0.300295,69.795624,3.328287,0.000000,-1.551279
LINE46,0.000000,2.747097,69.787967,3.328260,0.000000,1.560318
LINE47,1822.930453,-0.712622,1818.062464,3.309187,965.404740,1.243451
LINE48,0.000000,0.526907,0.000000,2.966295,0.000000,3.312560
LINE49,0.000000,1.545864,0.000000,3.727387,0.000000,1.514625
LINE50,64.642767,-0.837186,0.000000,0.098236,0.000000,1.640059
LINE51,0.000000,1.941775,69.795624,3.328287,0.000000,-1.546177
LINE52,1822.930453,-0.712622,1818.062464,3.309187,965.404740,1.243451
LINE53,0.000000,4.693951,0.000000,2.570760,0.000000,1.636922
LINE54,0.000000,0.311374,0.000000,2.567993,0.000000,3.196952
LINE55,0.000000,1.267565,0.000000,3.760162,0.000000,1.499024
LINE56,64.642767,-0.837186,0.000000,4.038826,0.000000,1.685211
LINE57,0.000000,-0.373672,69.795624,3.328287,0.000000,-1.434370
LINE58,1822.930453,-0.712622,1818.062464,3.309187,965.404740,1.243451
LINE59,0.000000,3.763955,0.000000,2.928079,0.000000,1.778645
LINE60,0.000000,-0.087746,0.000000,3.373236,0.000000,3.511784
LINE61,0.000000,1.165358,0.000000,3.742146,0.000000,1.538052
LINE62,64.642767,-0.837186,0.000000,-0.093048,0.000000,1.806080
LINE63,0.000000,-0.704577,69.795624,3.328287,0.000000,-1.340983
LINE64,1674.625179,-0.705152,1818.062464,3.309187,965.404740,1.243451
LINE65,148.878525,-0.796750,0.000000,2.335275,0.000000,-1.386616
LINE66,0.000000,-1.181393,0.000000,0.289995,0.000000,4.087264
LINE67,0.000000,-0.769662,0.000000,3.484481,0.000000,3.931165
LINE68,0.000000,2.473160,0.000000,3.869812,0.000000,1.558364
LINE69,64.642767,-0.837186,0.000000,-0.517997,0.000000,-1.377615
LINE70,0.000000,3.298111,69.795624,3.328287,0.000000,4.356735
LINE71,1674.625179,-0.705152,1818.062464,3.309187,965.404740,1.243451
LINE72,74.439263,-0.796750,0.000000,2.883020,0.000000,4.702182
LINE73,74.439263,-0.796750,0.000000,2.883095,0.000000,-1.311402
LINE74,0.000000,-1.208305,0.000000,-0.135972,0.000000,3.912358
LINE75,0.000000,-1.453061,0.000000,3.600839,0.000000,4.181728
LINE76,0.000000,2.496411,0.000000,3.860986,0.000000,1.574586
LINE77,0.000000,-1.418544,69.795624,3.328287,0.000000,-1.540226
LINE78,1674.625179,-0.705152,1818.062464,3.309187,965.404740,1.243451
LINE79,0.000000,-0.918069,0.000000,-0.366725,0.000000,3.741973
LINE80,0.000000,-1.307613,0.000000,3.664190,0.000000,4.115486
LINE81,0.000000,2.568111,0.000000,3.859531,0.000000,1.575903
LINE82,0.000000,2.373575,69.795624,3.328287,0.000000,1.973813
LINE83,1674.625179,-0.705152,1818.062464,3.309187,965.404740,1.243451
LINE84,0.000000,-1.232866,0.000000,0.036155,0.000000,-0.680535
LINE85,0.000000,-1.355854,0.000000,3.753323,0.000000,4.120132
LINE86,0.000000,2.588586,0.000000,3.884517,0.000000,1.577104
LINE87,1674.625179,-0.705152,1818.062464,3.309187,965.404740,1.243451
LINE88,0.000000,-1.543817,0.000000,-1.543817,0.000000,4.682479
LINE89,0.000000,-1.499983,0.000000,3.793022,0.000000,4.159615
LINE90,0.000000,2.653013,0.000000,3.926444,0.000000,1.570165
LINE91,1674.625179,-0.705152,1818.062464,3.309187,965.404740,1.243451
LINE92,0.000000,4.179148,0.000000,3.774706,0.000000,4.302839
LINE93,0.000000,3.116661,0.000000,4.223809,0.000000,1.545864
LINE94,1674.625179,-0.705152,1818.062464,3.309187,965.404740,1.243451
LINE95,0.000000,0.475289,0.000000,3.659064,0.000000,4.338628
LINE96,0.000000,2.331263,0.000000,-0.488580,0.000000,4.687457
LINE97,1674.625179,-0.705152,1818.062464,3.309187,965.404740,1.243451
LINE98,0.000000,0.981859,0.000000,3.210341,0.000000,4.277804
LINE99,0.000000,2.653013,0.000000,0.760466,0.000000,0.000000
LINE100,1674.625179,-0.705152,1818.062464,3.309187,965.404740,1.243451
LINE101,0.000000,0.632206,0.000000,3.350251,0.000000,4.207314
LINE102,0.000000,0.000000,0.000000,0.000000,0.000000,0.000000
LINE103,78.494455,-0.779905,250.865095,3.329596,126.708943,1.245910
LINE104,1596.360700,-0.701480,1567.257975,3.305920,838.696238,1.243079
LINE105,0.000000,0.999270,0.000000,3.276549,0.000000,4.219239
LINE106,78.494455,-0.779905,250.865095,3.329596,126.708943,1.245910
LINE107,1596.360700,-0.701480,1567.257975,3.305920,838.696238,1.243079
LINE108,0.000000,1.176513,0.000000,3.341804,0.000000,4.274323
LINE109,78.494455,-0.779905,250.865095,3.329596,126.708943,1.245910
LINE110,1596.360700,-0.701480,1567.257975,3.305920,838.696238,1.243079
LINE111,0.000000,1.037480,0.000000,3.277330,0.000000,4.235141
LINE112,78.494455,-0.779905,250.865095,3.329596,126.708943,1.245910
LINE113,1596.360700,-0.701480,1567.257975,3.305920,838.696238,1.243079
LINE114,0.000000,1.043889,0.000000,3.282155,0.000000,4.233647
LINE115,78.494455,-0.779905,250.865095,3.329596,126.708943,1.245910
LINE116,81.307543,-0.770165,173.638680,3.330214,127.620830,1.247309
LINE117,1515.255148,-0.697797,1393.676916,3.302894,711.076755,1.242320
LINE118,0.000000,1.013026,0.000000,3.289160,0.000000,4.250615
LINE119,78.494455,-0.779905,250.865095,3.329596,126.708943,1.245910
LINE120,0.000000,2.951512,0.000000,0.438716,0.000000,4.669881
LINE121,81.307543,-0.770165,173.638680,3.330214,127.620830,1.247309
LINE122,1515.255148,-0.697797,1393.676916,3.302894,711.076755,1.242320
LINE123,0.000000,0.932328,0.000000,3.311190,0.000000,4.253498
LINE124,78.494455,-0.779905,250.865095,3.329596,126.708943,1.245910
LINE125,0.000000,2.919265,0.000000,0.438716,0.000000,4.685895
LINE126,81.307543,-0.770165,173.638680,3.330214,127.620830,1.247309
LINE127,1515.255148,-0.697797,1393.676916,3.302894,711.076755,1.242320
LINE128,0.000000,0.743090,0.000000,3.244962,0.000000,4.231770
LINE129,78.494455,-0.779905,250.865095,3.329596,126.708943,1.245910
LINE130,0.000000,3.116661,0.000000,0.760466,0.000000,4.671833
LINE131,81.307543,-0.770165,0.000000,3.853690,0.000000,4.587123
LINE132,0.000000,-0.673623,173.638680,3.330214,127.620830,1.247309
LINE133,1515.255148,-0.697797,1393.676916,3.302894,711.076755,1.242320
LINE134,0.000000,1.084273,0.000000,3.242117,0.000000,4.233919
LINE135,78.494455,-0.779905,250.865095,3.329596,126.708943,1.245910
LINE136,0.000000,2.794910,0.000000,1.082217,0.000000,4.532460
LINE137,81.307543,-0.770165,0.000000,3.861448,0.000000,4.570097
LINE138,0.000000,-0.668946,173.638680,3.330214,127.620830,1.247309
LINE139,1515.255148,-0.697797,1393.676916,3.302894,711.076755,1.242320
LINE140,0.000000,1.151837,0.000000,3.215710,0.000000,4.229960
LINE141,78.494455,-0.779905,250.865095,3.329596,126.708943,1.245910
LINE142,0.000000,2.653013,0.000000,0.296819,0.000000,4.646464
LINE143,81.307543,-0.770165,0.000000,3.898965,0.000000,4.561024
LINE144,0.000000,-0.663449,173.638680,3.330214,127.620830,1.247309
LINE145,1515.255148,-0.697797,1393.676916,3.302894,711.076755,1.242320
LINE146,0.000000,0.649636,0.000000,3.194216,0.000000,4.200033
LINE147,78.494455,-0.779905,250.865095,3.329596,126.708943,1.245910
LINE148,0.000000,3.116661,0.000000,0.140217,0.000000,4.678082
LINE149,81.307543,-0.770165,0.000000,3.901643,0.000000,4.592187
LINE150,0.000000,-0.614633,0.000000,2.386406,127.620830,1.247309
LINE151,0.000000,3.013688,173.638680,3.330214,0.000000,1.531500
LINE152,1515.255148,-0.697797,1393.676916,3.302894,711.076755,1.242320
LINE153,0.000000,1.026871,0.000000,4.648903,0.000000,4.400821
LINE154,78.494455,-0.779905,250.865095,3.329596,126.708943,1.245910
LINE155,0.000000,2.331263,0.000000,-0.190081,0.000000,4.664024
LINE156,81.307543,-0.770165,0.000000,3.941386,0.000000,4.604716
LINE157,0.000000,-0.618222,0.000000,2.381150,127.620830,1.247309
LINE158,0.000000,3.039158,173.638680,3.330214,0.000000,1.531270
LINE159,1515.255148,-0.697797,1393.676916,3.302894,711.076755,1.242320
LINE160,0.000000,0.265917,0.000000,0.265917,0.000000,4.281981
LINE161,0.000000,3.460755,82.915598,3.328914,0.000000,4.684756
LINE162,78.494455,-0.779905,167.949526,3.329933,126.708943,1.245910
LINE163,0.000000,2.331263,0.000000,-0.269911,0.000000,4.671833
LINE164,81.307543,-0.770165,0.000000,3.837403,0.000000,4.598807
LINE165,0.000000,-0.617763,0.000000,2.372215,127.620830,1.247309
LINE166,0.000000,3.090575,173.638680,3.330214,0.000000,1.525851
LINE167,1515.255148,-0.697797,1393.676916,3.302894,711.076755,1.242320
LINE168,0.000000,4.500005,0.000000,4.500005,0.000000,1.377640
LINE169,0.000000,2.453689,82.915598,3.328914,0.000000,4.656124
LINE170,78.494455,-0.779905,167.949526,3.329933,126.708943,1.245910
LINE171,0.000000,2.331263,0.000000,-0.024932,0.000000,4.660120
LINE172,81.307543,-0.770165,0.000000,3.858595,0.000000,4.612241
LINE173,0.000000,-0.767260,0.000000,2.305564,0.000000,2.475006
LINE174,0.000000,-0.014256,0.000000,3.002808,127.620830,1.247309
LINE175,0.000000,3.077938,173.638680,3.330214,0.000000,1.516881
LINE176,1515.255148,-0.697797,1393.676916,3.302894,711.076755,1.242320
LINE177,0.000000,3.990453,82.915598,3.328914,0.000000,-1.523094
LINE178,78.494455,-0.779905,167.949526,3.329933,0.000000,4.238949
LINE179,0.000000,-0.034727,0.000000,3.264436,126.708943,1.245910
LINE180,0.000000,3.116661,0.000000,3.580308,0.000000,4.666627
LINE181,81.307543,-0.770165,0.000000,3.867100,0.000000,4.623950
LINE182,0.000000,-0.731619,0.000000,2.315511,0.000000,2.366551
LINE183,0.000000,0.002996,0.000000,3.025796,127.620830,1.247309
LINE184,0.000000,3.079814,173.638680,3.330214,0.000000,1.519155
LINE185,1515.255148,-0.697797,1393.676916,3.302894,711.076755,1.242320
LINE186,78.494455,-0.779905,167.949526,3.329933,0.000000,3.972891
LINE187,0.000000,-0.010376,0.000000,3.275541,126.708943,1.245910
LINE188,0.000000,2.653013,0.000000,-0.024932,0.000000,4.697873
LINE189,81.307543,-0.770165,0.000000,3.846730,0.000000,4.608712
LINE190,0.000000,1.336937,0.000000,0.890637,0.000000,4.434535
LINE191,0.000000,-0.587462,0.000000,2.040991,0.000000,2.386833
LINE192,0.000000,-0.015486,0.000000,3.131489,127.620830,1.247309
LINE193,0.000000,3.040545,173.638680,3.330214,0.000000,1.506870
LINE194,1515.255148,-0.697797,1393.676916,3.302894,711.076755,1.242320
LINE195,78.494455,-0.779905,167.949526,3.329933,0.000000,3.973084
LINE196,0.000000,2.780811,0.000000,-0.110281,63.341460,1.245859
LINE197,0.000000,0.020646,0.000000,3.242535,63.367483,1.245960
LINE198,0.000000,3.116661,0.000000,0.438716,0.000000,3.116661
LINE199,81.307543,-0.770165,0.000000,3.821235,0.000000,4.626520
LINE200,0.000000,2.534992,0.000000,3.490266,0.000000,2.589655
LINE201,0.000000,-0.697695,0.000000,2.195363,0.000000,2.275735
LINE202,0.000000,0.024732,0.000000,3.195922,127.620830,1.247309
LINE203,0.000000,3.096784,173.638680,3.330214,0.000000,1.510984
LINE204,1515.255148,-0.697797,1393.676916,3.302894,711.076755,1.242320
LINE205,78.494455,-0.779905,0.000000,3.981175,0.000000,1.665068
LINE206,0.000000,2.675090,167.949526,3.329933,0.000000,3.903803
LINE207,0.000000,2.033948,0.000000,3.627717,63.341460,1.245859
LINE208,0.000000,0.101557,0.000000,3.082623,63.367483,1.245960
LINE209,0.000000,2.331263,0.000000,1.545864,0.000000,-0.024932
LINE210,81.307543,-0.770165,0.000000,3.810114,0.000000,4.616951
LINE211,0.000000,-1.001054,0.000000,2.469610,0.000000,2.277109
LINE212,0.000000,0.024494,0.000000,2.867470,127.620830,1.247309
LINE213,0.000000,3.018002,173.638680,3.330214,0.000000,1.506168
LINE214,1515.255148,-0.697797,1393.676916,3.302894,711.076755,1.242320
LINE215,78.494455,-0.779905,0.000000,3.702334,0.000000,4.260538
LINE216,0.000000,3.284063,167.949526,3.329933,0.000000,4.114789
LINE217,0.000000,-0.144209,0.000000,3.183101,63.367483,1.245960
LINE218,0.000000,0.000000,0.000000,4.687457,0.000000,3.116661
LINE219,81.307543,-0.770165,0.000000,3.844070,0.000000,4.616601
LINE220,0.000000,-0.767863,0.000000,2.358025,0.000000,2.385258
LINE221,0.000000,-0.002876,0.000000,3.057662,127.620830,1.247309
LINE222,0.000000,2.960385,173.638680,3.330214,0.000000,1.523064
LINE223,1515.255148,-0.697797,1393.676916,3.302894,711.076755,1.242320
LINE224,78.494455,-0.779905,0.000000,3.165162,0.000000,-1.103857
LINE225,0.000000,2.460846,167.949526,3.329933,0.000000,4.156700
LINE226,0.000000,0.001833,0.000000,3.324755,63.367483,1.245960
LINE227,81.307543,-0.770165,0.000000,3.703130,0.000000,4.604228
LINE228,0.000000,-1.523695,0.000000,2.415961,0.000000,2.317932
LINE229,0.000000,-0.032010,0.000000,3.069066,127.620830,1.247309
LINE230,0.000000,2.941630,173.638680,3.330214,0.000000,1.519515
LINE231,1515.255148,-0.697797,1393.676916,3.302894,711.076755,1.242320
LINE232,0.000000,-0.239965,167.949526,3.329933,0.000000,1.667629
LINE233,0.000000,3.426968,0.000000,3.426968,0.000000,1.700908
LINE234,0.000000,0.112879,0.000000,3.271061,63.367483,1.245960
LINE235,81.307543,-0.770165,0.000000,4.048791,0.000000,4.039577
LINE236,0.000000,-0.859088,0.000000,2.420620,0.000000,2.211366
LINE237,0.000000,-0.049331,0.000000,3.077830,127.620830,1.247309
LINE238,0.000000,2.847300,173.638680,3.330214,0.000000,1.532026
LINE239,1515.255148,-0.697797,1393.676916,3.302894,711.076755,1.242320
LINE240,0.000000,-0.422686,167.949526,3.329933,0.000000,1.751168
LINE241,0.000000,-0.125676,0.000000,2.878155,63.367483,1.245960
LINE242,81.307543,-0.770165,0.000000,3.542076,0.000000,2.225039
LINE243,0.000000,-1.209464,0.000000,2.323973,0.000000,1.946092
LINE244,0.000000,0.000720,0.000000,3.109135,127.620830,1.247309
LINE245,0.000000,2.781230,173.638680,3.330214,0.000000,1.509498
LINE246,1515.255148,-0.697797,1393.676916,3.302894,711.076755,1.242320
LINE247,0.000000,2.731605,83.974763,3.329933,0.000000,1.472786
LINE248,0.000000,2.731044,83.974763,3.329933,0.000000,1.588738
LINE249,0.000000,2.196741,0.000000,2.196741,63.367483,1.245960
LINE250,81.307543,-0.770165,0.000000,3.897575,0.000000,1.695380
LINE251,0.000000,4.696337,0.000000,1.118772,0.000000,2.859285
LINE252,0.000000,-0.016981,0.000000,3.009822,127.620830,1.247309
LINE253,0.000000,2.826798,173.638680,3.330214,0.000000,1.512019
LINE254,88.006181,-0.753365,0.000000,-0.290904,0.000000,4.203041
LINE255,1427.393175,-0.694373,1393.676916,3.302894,711.076755,1.242320
LINE256,0.000000,0.636655,0.000000,3.233621,63.367483,1.245960
LINE257,81.307543,-0.770165,0.000000,-1.296476,0.000000,1.709087
LINE258,0.000000,-0.239096,0.000000,1.208728,0.000000,2.921210
LINE259,0.000000,-0.015756,0.000000,2.954911,127.620830,1.247309
LINE260,0.000000,2.902573,173.638680,3.330214,0.000000,1.550621
LINE261,88.006181,-0.753365,0.000000,-0.289068,0.000000,4.064127
LINE262,1427.393175,-0.694373,1393.676916,3.302894,711.076755,1.242320
LINE263,0.000000,1.632856,0.000000,2.991611,63.367483,1.245960
LINE264,81.307543,-0.770165,0.000000,-0.079942,0.000000,1.591204
LINE265,0.000000,-1.182015,0.000000,3.738443,0.000000,2.527298
LINE266,0.000000,-0.035235,0.000000,2.920412,127.620830,1.247309
LINE267,0.000000,1.914891,86.872046,3.330364,0.000000,1.240215
LINE268,0.000000,2.864706,86.766635,3.330065,0.000000,1.597248
LINE269,88.006181,-0.753365,0.000000,-0.399919,0.000000,4.076621
LINE270,0.000000,-0.623874,0.000000,4.084167,64.124366,1.250024
LINE271,1427.393175,-0.694373,1393.676916,3.302894,646.954480,1.241557
LINE272,81.307543,-0.770165,0.000000,0.977619,0.000000,1.584469
LINE273,0.000000,-0.951183,0.000000,-0.951183,0.000000,1.650267
LINE274,0.000000,0.000663,0.000000,3.029215,127.620830,1.247309
LINE275,0.000000,2.220248,86.872046,3.330364,0.000000,-1.532909
LINE276,0.000000,2.681094,86.766635,3.330065,0.000000,1.600168
LINE277,88.006181,-0.753365,0.000000,-0.270064,0.000000,4.537861
LINE278,0.000000,-0.682471,0.000000,4.179631,64.124366,1.250024
LINE279,1427.393175,-0.694373,1393.676916,3.302894,646.954480,1.241557
LINE280,81.307543,-0.770165,0.000000,2.792925,0.000000,-1.478100
LINE281,0.000000,0.591595,0.000000,4.150031,0.000000,-1.332291
LINE282,0.000000,0.093386,0.000000,2.476781,127.620830,1.247309
LINE283,0.000000,2.838916,86.766635,3.330065,0.000000,1.475186
LINE284,88.006181,-0.753365,0.000000,-0.227106,0.000000,4.559950
LINE285,0.000000,-0.677936,0.000000,3.945674,64.124366,1.250024
LINE286,723.447454,-0.693784,440.721025,3.282965,126.481511,1.252043
LINE287,703.945976,-0.694978,953.083865,3.312109,520.481613,1.239008
LINE288,81.307543,-0.770165,0.000000,-1.309887,0.000000,1.305017
LINE289,0.000000,-1.074315,0.000000,-1.074315,0.000000,-0.828488
LINE290,0.000000,0.437620,0.000000,3.214142,63.848450,1.247456
LINE291,0.000000,-0.232576,0.000000,-0.184716,63.772381,1.247162
LINE292,0.000000,1.582083,86.766635,3.330065,0.000000,1.790135
LINE293,88.006181,-0.753365,0.000000,-0.224396,0.000000,4.555409
LINE294,0.000000,-0.401467,0.000000,3.920466,64.124366,1.250024
LINE295,723.447454,-0.693784,440.721025,3.282965,126.481511,1.252043
LINE296,703.945976,-0.694978,953.083865,3.312109,520.481613,1.239008
LINE297,0.000000,0.018793,0.000000,3.560625,63.848450,1.247456
LINE298,0.000000,-0.291715,0.000000,-0.786796,63.772381,1.247162
LINE299,0.000000,2.801190,86.766635,3.330065,0.000000,4.532332
LINE300,88.006181,-0.753365,0.000000,-0.235504,0.000000,4.566564
LINE301,0.000000,-0.336666,0.000000,4.069757,64.124366,1.250024
LINE302,723.447454,-0.693784,440.721025,3.282965,126.481511,1.252043
LINE303,703.945976,-0.694978,953.083865,3.312109,520.481613,1.239008
LINE304,0.000000,-0.177333,0.000000,1.207927,63.848450,1.247456
LINE305,0.000000,3.371919,0.000000,-0.479655,63.772381,1.247162
LINE306,0.000000,0.138692,86.766635,3.330065,0.000000,1.745012
LINE307,88.006181,-0.753365,0.000000,-0.273098,0.000000,4.386891
LINE308,0.000000,-0.515851,0.000000,3.970958,64.124366,1.250024
LINE309,723.447454,-0.693784,440.721025,3.282965,126.481511,1.252043
LINE310,703.945976,-0.694978,953.083865,3.312109,520.481613,1.239008
LINE311,0.000000,1.169634,0.000000,0.611527,63.848450,1.247456
LINE312,0.000000,1.870251,0.000000,0.277256,63.772381,1.247162
LINE313,0.000000,0.370926,86.766635,3.330065,0.000000,1.574843
LINE314,88.006181,-0.753365,0.000000,-0.278915,0.000000,4.365210
LINE315,0.000000,-0.299377,0.000000,3.572120,64.124366,1.250024
LINE316,185.626271,-0.738605,0.000000,4.589460,0.000000,1.180347
LINE317,538.071894,-0.678326,440.721025,3.282965,126.481511,1.252043
LINE318,703.945976,-0.694978,953.083865,3.312109,520.481613,1.239008
LINE319,0.000000,1.929228,0.000000,4.150978,63.848450,1.247456
LINE320,0.000000,0.538603,0.000000,0.538603,63.772381,1.247162
LINE321,88.006181,-0.753365,0.000000,-0.246700,0.000000,4.117530
LINE322,0.000000,-1.004920,0.000000,3.371452,64.124366,1.250024
LINE323,185.626271,-0.738605,0.000000,4.699216,0.000000,1.055820
LINE324,538.071894,-0.678326,440.721025,3.282965,126.481511,1.252043
LINE325,703.945976,-0.694978,953.083865,3.312109,520.481613,1.239008
LINE326,0.000000,3.802473,0.000000,-0.479576,63.772381,1.247162
LINE327,88.006181,-0.753365,0.000000,-0.251609,0.000000,4.214941
LINE328,0.000000,4.146499,0.000000,3.007523,64.124366,1.250024
LINE329,185.626271,-0.738605,0.000000,4.620552,0.000000,0.936181
LINE330,0.000000,3.983147,0.000000,4.632907,63.829748,1.253219
LINE331,538.071894,-0.678326,440.721025,3.282965,62.651851,1.250845
LINE332,703.945976,-0.694978,953.083865,3.312109,520.481613,1.239008
LINE333,88.006181,-0.753365,0.000000,-0.228287,0.000000,4.278236
LINE334,0.000000,0.589704,0.000000,1.200143,64.124366,1.250024
LINE335,185.626271,-0.738605,0.000000,4.679218,0.000000,1.112894
LINE336,0.000000,-0.296417,0.000000,3.322772,63.829748,1.253219
LINE337,0.000000,-0.719238,99.378209,3.297511,0.000000,1.571285
LINE338,538.071894,-0.678326,341.356389,3.278731,62.651851,1.250845
LINE339,703.945976,-0.694978,953.083865,3.312109,520.481613,1.239008
LINE340,88.006181,-0.753365,0.000000,-0.253902,0.000000,4.109316
LINE341,0.000000,1.398063,0.000000,-1.542402,64.124366,1.250024
LINE342,92.710149,-0.738878,0.000000,4.686537,0.000000,-1.528744
LINE343,92.916129,-0.738333,0.000000,4.637859,0.000000,1.269016
LINE344,0.000000,-0.722796,99.378209,3.297511,0.000000,1.570399
LINE345,538.071894,-0.678326,341.356389,3.278731,62.651851,1.250845
LINE346,703.945976,-0.694978,953.083865,3.312109,520.481613,1.239008
LINE347,88.006181,-0.753365,0.000000,-0.265717,0.000000,1.922779
LINE348,92.710149,-0.738878,0.000000,2.042528,0.000000,4.683374
LINE349,92.916129,-0.738333,0.000000,4.620282,0.000000,-1.550192
LINE350,0.000000,-0.754530,99.378209,3.297511,0.000000,1.573726
LINE351,538.071894,-0.678326,341.356389,3.278731,62.651851,1.250845
LINE352,703.945976,-0.694978,953.083865,3.312109,520.481613,1.239008
LINE353,88.006181,-0.753365,0.000000,-0.350303,0.000000,1.887887
LINE354,92.916129,-0.738333,0.000000,-1.104303,0.000000,1.383516
LINE355,0.000000,-0.855360,99.378209,3.297511,0.000000,0.317216
LINE356,538.071894,-0.678326,341.356389,3.278731,62.651851,1.250845
LINE357,703.945976,-0.694978,953.083865,3.312109,520.481613,1.239008
LINE358,88.006181,-0.753365,0.000000,-0.223374,0.000000,2.177373
LINE359,92.916129,-0.738333,0.000000,-1.243912,0.000000,1.314720
LINE360,0.000000,-1.248294,99.378209,3.297511,0.000000,-1.448462
LINE361,538.071894,-0.678326,341.356389,3.278731,62.651851,1.250845
LINE362,703.945976,-0.694978,953.083865,3.312109,520.481613,1.239008
LINE363,88.006181,-0.753365,0.000000,-0.311898,0.000000,1.717126
LINE364,92.916129,-0.738333,0.000000,-1.569961,0.000000,1.370499
LINE365,0.000000,-0.560058,99.378209,3.297511,0.000000,-1.532471
LINE366,538.071894,-0.678326,341.356389,3.278731,62.651851,1.250845
LINE367,703.945976,-0.694978,953.083865,3.312109,520.481613,1.239008
LINE368,88.006181,-0.753365,0.000000,-0.414177,0.000000,1.609524
LINE369,92.916129,-0.738333,0.000000,-1.019202,0.000000,1.487743
LINE370,0.000000,-1.149933,99.378209,3.297511,0.000000,-1.511115
LINE371,538.071894,-0.678326,341.356389,3.278731,62.651851,1.250845
LINE372,703.945976,-0.694978,953.083865,3.312109,520.481613,1.239008
LINE373,88.006181,-0.753365,0.000000,-0.687863,0.000000,4.376559
LINE374,92.916129,-0.738333,0.000000,-0.652288,0.000000,1.651529
LINE375,0.000000,-0.063141,99.378209,3.297511,0.000000,-1.545021
LINE376,538.071894,-0.678326,341.356389,3.278731,62.651851,1.250845
LINE377,703.945976,-0.694978,953.083865,3.312109,455.896924,1.237573
LINE378,0.000000,2.118201,0.000000,0.157256,64.588475,1.249142
LINE379,88.006181,-0.753365,0.000000,0.094637,0.000000,-1.489615
LINE380,92.916129,-0.738333,0.000000,-0.085922,0.000000,4.513385
LINE381,0.000000,-0.531641,99.378209,3.297511,0.000000,-1.556308
LINE382,538.071894,-0.678326,341.356389,3.278731,62.651851,1.250845
LINE383,703.945976,-0.694978,953.083865,3.312109,455.896924,1.237573
LINE384,0.000000,0.270123,0.000000,-1.019381,64.588475,1.249142
LINE385,0.000000,2.731371,0.000000,0.239754,0.000000,-1.429262
LINE386,88.006181,-0.753365,0.000000,-1.079784,0.000000,1.636056
LINE387,92.916129,-0.738333,0.000000,-0.004425,0.000000,1.927300
LINE388,0.000000,1.409292,99.378209,3.297511,0.000000,-1.507421
LINE389,538.071894,-0.678326,341.356389,3.278731,62.651851,1.250845
LINE390,703.945976,-0.694978,953.083865,3.312109,455.896924,1.237573
LINE391,0.000000,0.256955,0.000000,-0.959938,64.588475,1.249142
LINE392,0.000000,2.737388,0.000000,0.228361,0.000000,-1.441007
LINE393,0.000000,2.710235,99.378209,3.297511,0.000000,-1.311417
LINE394,538.071894,-0.678326,341.356389,3.278731,62.651851,1.250845
LINE395,0.000000,-1.116927,0.000000,3.790186,129.873769,1.248244
LINE396,703.945976,-0.694978,953.083865,3.312109,326.033496,1.233322
LINE397,0.000000,0.270437,0.000000,-0.877738,64.588475,1.249142
LINE398,0.000000,2.696059,0.000000,0.218071,0.000000,-1.393181
LINE399,0.000000,4.560494,99.378209,3.297511,0.000000,1.515897
LINE400,538.071894,-0.678326,341.356389,3.278731,62.651851,1.250845
LINE401,0.000000,-1.130687,0.000000,3.700911,129.873769,1.248244
LINE402,703.945976,-0.694978,953.083865,3.312109,326.033496,1.233322
LINE403,0.000000,0.485753,0.000000,-0.669493,64.588475,1.249142
LINE404,0.000000,2.616092,0.000000,0.243036,0.000000,-1.460411
LINE405,0.000000,0.227670,99.378209,3.297511,0.000000,1.280263
LINE406,538.071894,-0.678326,341.356389,3.278731,62.651851,1.250845
LINE407,0.000000,4.624710,0.000000,4.036852,129.873769,1.248244
LINE408,703.945976,-0.694978,953.083865,3.312109,326.033496,1.233322
LINE409,0.000000,-0.497084,0.000000,3.658042,0.000000,1.828617
LINE410,0.000000,1.848067,0.000000,-0.560722,64.588475,1.249142
LINE411,0.000000,2.615214,0.000000,0.231362,0.000000,1.361327
LINE412,538.071894,-0.678326,341.356389,3.278731,62.651851,1.250845
LINE413,0.000000,3.853486,0.000000,3.853486,129.873769,1.248244
LINE414,703.945976,-0.694978,953.083865,3.312109,326.033496,1.233322
LINE415,0.000000,-0.459056,0.000000,3.652867,0.000000,1.841551
LINE416,0.000000,1.956404,0.000000,-1.069119,64.588475,1.249142
LINE417,0.000000,2.685387,0.000000,0.279964,0.000000,-1.548286
LINE418,538.071894,-0.678326,341.356389,3.278731,62.651851,1.250845
LINE419,0.000000,-1.474096,0.000000,3.888683,129.873769,1.248244
LINE420,703.945976,-0.694978,953.083865,3.312109,326.033496,1.233322
LINE421,0.000000,-0.482445,0.000000,3.405232,0.000000,1.893736
LINE422,0.000000,1.942141,0.000000,-0.339913,64.588475,1.249142
LINE423,0.000000,2.701741,0.000000,0.364413,0.000000,-1.488458
LINE424,538.071894,-0.678326,341.356389,3.278731,62.651851,1.250845
LINE425,0.000000,0.867199,0.000000,0.136335,0.000000,4.673271
LINE426,0.000000,4.293009,0.000000,3.727149,129.873769,1.248244
LINE427,703.945976,-0.694978,953.083865,3.312109,326.033496,1.233322
LINE428,0.000000,-0.432733,0.000000,3.412799,0.000000,1.831597
LINE429,0.000000,1.661114,0.000000,0.184931,64.588475,1.249142
LINE430,0.000000,2.707762,0.000000,0.383861,0.000000,-1.483252
LINE431,538.071894,-0.678326,341.356389,3.278731,62.651851,1.250845
LINE432,0.000000,-0.143819,0.000000,2.939912,0.000000,2.916502
LINE433,0.000000,4.192270,0.000000,3.585718,129.873769,1.248244
LINE434,703.945976,-0.694978,953.083865,3.312109,326.033496,1.233322
LINE435,0.000000,-0.454757,0.000000,3.570308,0.000000,1.885976
LINE436,0.000000,2.539917,0.000000,-0.475358,64.588475,1.249142
LINE437,0.000000,2.719228,0.000000,0.282173,0.000000,-1.508280
LINE438,538.071894,-0.678326,341.356389,3.278731,62.651851,1.250845
LINE439,0.000000,2.939912,0.000000,2.939912,0.000000,-0.145406
LINE440,0.000000,4.271713,0.000000,3.559653,129.873769,1.248244
LINE441,703.945976,-0.694978,953.083865,3.312109,326.033496,1.233322
LINE442,0.000000,-0.519692,0.000000,4.396078,0.000000,1.823880
LINE443,0.000000,1.901371,0.000000,0.602774,64.588475,1.249142
LINE444,0.000000,2.837572,0.000000,0.324111,0.000000,-1.521140
LINE445,538.071894,-0.678326,341.356389,3.278731,62.651851,1.250845
LINE446,0.000000,-0.758484,0.000000,-0.758484,0.000000,-1.352759
LINE447,0.000000,4.214877,0.000000,3.589541,129.873769,1.248244
LINE448,703.945976,-0.694978,953.083865,3.312109,326.033496,1.233322
LINE449,0.000000,-0.473931,0.000000,4.249012,0.000000,1.880494
LINE450,0.000000,3.608120,0.000000,0.311200,64.588475,1.249142
LINE451,0.000000,2.732796,0.000000,0.258036,0.000000,-1.349777
LINE452,538.071894,-0.678326,341.356389,3.278731,62.651851,1.250845
LINE453,0.000000,3.036819,0.000000,0.156926,0.000000,1.765412
LINE454,0.000000,4.424038,0.000000,3.607668,129.873769,1.248244
LINE455,703.945976,-0.694978,953.083865,3.312109,326.033496,1.233322
LINE456,0.000000,-0.483161,0.000000,3.682217,0.000000,1.757478
LINE457,0.000000,-0.324732,0.000000,-0.324732,64.588475,1.249142
LINE458,0.000000,2.681627,0.000000,0.217428,0.000000,-1.315067
LINE459,433.725128,-0.674811,341.356389,3.278731,62.651851,1.250845
LINE460,0.000000,4.542780,0.000000,3.951808,0.000000,-1.539942
LINE461,104.360579,-0.692933,0.000000,1.435925,0.000000,-1.536202
LINE462,0.000000,4.061274,0.000000,3.562805,129.873769,1.248244
LINE463,703.945976,-0.694978,953.083865,3.312109,326.033496,1.233322
LINE464,0.000000,-0.383021,0.000000,4.504015,0.000000,1.830816
LINE465,0.000000,2.736305,0.000000,0.161141,0.000000,-0.238862
LINE466,433.725128,-0.674811,341.356389,3.278731,62.651851,1.250845
LINE467,0.000000,1.711795,0.000000,1.711795,0.000000,-0.946993
LINE468,0.000000,1.506480,0.000000,4.475009,0.000000,1.361149
LINE469,104.360579,-0.692933,0.000000,1.515706,0.000000,-1.528841
LINE470,0.000000,3.925891,0.000000,3.664732,129.873769,1.248244
LINE471,703.945976,-0.694978,953.083865,3.312109,326.033496,1.233322
LINE472,0.000000,-0.253673,0.000000,4.574405,0.000000,1.679126
LINE473,0.000000,2.700663,0.000000,0.247113,0.000000,-1.085846
LINE474,433.725128,-0.674811,341.356389,3.278731,62.651851,1.250845
LINE475,0.000000,-0.752849,0.000000,-1.504111,0.000000,1.785719
LINE476,104.360579,-0.692933,0.000000,1.225487,0.000000,-1.534632
LINE477,0.000000,4.051362,0.000000,3.811703,129.873769,1.248244
LINE478,703.945976,-0.694978,953.083865,3.312109,326.033496,1.233322
LINE479,0.000000,0.009092,0.000000,3.029988,0.000000,1.594807
LINE480,0.000000,2.609743,0.000000,0.371023,0.000000,-0.430113
LINE481,217.878444,-0.670174,341.356389,3.278731,62.651851,1.250845
LINE482,0.000000,-1.087966,0.000000,2.383419,0.000000,4.444265
LINE483,215.851390,-0.679491,0.000000,0.285921,0.000000,-1.559300
LINE484,104.360579,-0.692933,0.000000,1.216367,0.000000,-1.560077
LINE485,0.000000,3.862820,0.000000,3.724618,129.873769,1.248244
LINE486,703.945976,-0.694978,953.083865,3.312109,326.033496,1.233322
LINE487,0.000000,0.003826,0.000000,-0.258382,0.000000,1.619390
LINE488,0.000000,1.525794,0.000000,-0.082271,0.000000,-0.158640
LINE489,217.878444,-0.670174,341.356389,3.278731,62.651851,1.250845
LINE490,0.000000,-0.914742,0.000000,3.941776,0.000000,1.619938
LINE491,107.870612,-0.679617,0.000000,0.305542,0.000000,-1.559207
LINE492,107.980780,-0.679366,0.000000,-0.289270,0.000000,1.462343
LINE493,104.360579,-0.692933,0.000000,1.122570,0.000000,-1.564058
LINE494,0.000000,3.690297,0.000000,4.391823,129.873769,1.248244
LINE495,703.945976,-0.694978,953.083865,3.312109,326.033496,1.233322
LINE496,0.000000,0.182172,0.000000,0.554855,0.000000,1.655230
LINE497,0.000000,1.496657,0.000000,1.496657,0.000000,1.567692
LINE498,217.878444,-0.670174,341.356389,3.278731,62.651851,1.250845
LINE499,0.000000,3.389456,0.000000,1.661753,0.000000,1.223001
LINE500,107.870612,-0.679617,0.000000,0.197655,0.000000,4.705990
LINE501,107.980780,-0.679366,0.000000,-0.276049,0.000000,1.465393
LINE502,104.360579,-0.692933,0.000000,1.058331,0.000000,-1.563618
LINE503,0.000000,3.275809,0.000000,3.909215,129.873769,1.248244
LINE504,703.945976,-0.694978,953.083865,3.312109,326.033496,1.233322
LINE505,0.000000,0.156575,0.000000,0.417615,0.000000,1.646243
LINE506,0.000000,-0.149575,0.000000,-0.149575,0.000000,3.066247
LINE507,217.878444,-0.670174,341.356389,3.278731,62.651851,1.250845
LINE508,0.000000,-0.590335,0.000000,-0.296165,0.000000,0.856790
LINE509,107.870612,-0.679617,0.000000,0.222573,0.000000,-1.551472
LINE510,104.360579,-0.692933,0.000000,0.917745,0.000000,-1.564666
LINE511,0.000000,3.076267,0.000000,3.756521,129.873769,1.248244
LINE512,0.000000,2.937523,104.810438,3.308630,0.000000,-1.380190
LINE513,703.945976,-0.694978,848.274140,3.312538,326.033496,1.233322
LINE514,0.000000,0.492536,0.000000,0.984810,0.000000,1.755621
LINE515,0.000000,1.856551,341.356389,3.278731,62.651851,1.250845
LINE516,0.000000,0.965405,0.000000,0.965405,0.000000,2.132230
LINE517,217.878444,-0.670174,0.000000,3.813309,0.000000,1.388617
LINE518,107.870612,-0.679617,0.000000,0.327117,0.000000,-1.564630
LINE519,104.360579,-0.692933,0.000000,1.010046,0.000000,-1.568569
LINE520,0.000000,1.804502,0.000000,3.721548,129.873769,1.248244
LINE521,0.000000,4.074344,104.810438,3.308630,0.000000,1.619212
LINE522,703.945976,-0.694978,848.274140,3.312538,326.033496,1.233322
LINE523,0.000000,0.680897,0.000000,0.514759,0.000000,1.723631
LINE524,0.000000,1.845396,341.356389,3.278731,62.651851,1.250845
LINE525,0.000000,2.789057,0.000000,0.241923,0.000000,4.511071
LINE526,217.878444,-0.670174,0.000000,3.822469,0.000000,1.392702
LINE527,107.870612,-0.679617,0.000000,0.371673,0.000000,-1.499107
LINE528,104.360579,-0.692933,0.000000,1.028374,0.000000,-1.552954
LINE529,0.000000,3.363634,0.000000,3.213901,129.873769,1.248244
LINE530,703.945976,-0.694978,848.274140,3.312538,326.033496,1.233322
LINE531,0.000000,0.677761,0.000000,1.536709,0.000000,1.745906
LINE532,0.000000,1.847403,341.356389,3.278731,62.651851,1.250845
LINE533,0.000000,1.384914,0.000000,-1.511415,0.000000,1.654870
LINE534,217.878444,-0.670174,0.000000,3.815405,0.000000,1.387825
LINE535,107.870612,-0.679617,0.000000,0.769326,0.000000,-1.409222
LINE536,104.360579,-0.692933,0.000000,1.105137,0.000000,-1.543195
LINE537,0.000000,4.700580,0.000000,3.347234,64.981501,1.248413
LINE538,0.000000,4.658850,0.000000,4.694858,64.892269,1.248075
LINE539,703.945976,-0.694978,848.274140,3.312538,326.033496,1.233322
LINE540,0.000000,0.950155,0.000000,-0.073386,0.000000,1.697930
LINE541,0.000000,1.852732,341.356389,3.278731,62.651851,1.250845
LINE542,0.000000,-0.201681,0.000000,-0.201681,0.000000,2.996186
LINE543,217.878444,-0.670174,0.000000,3.805719,0.000000,1.380837
LINE544,107.870612,-0.679617,0.000000,0.046705,0.000000,-1.479563
LINE545,104.360579,-0.692933,0.000000,0.741508,0.000000,-1.557206
LINE546,0.000000,-1.419953,0.000000,3.174800,64.981501,1.248413
LINE547,703.945976,-0.694978,848.274140,3.312538,326.033496,1.233322
LINE548,0.000000,1.214461,0.000000,0.112764,0.000000,1.930607
LINE549,0.000000,1.844948,341.356389,3.278731,62.651851,1.250845
LINE550,0.000000,-0.978310,0.000000,3.110691,0.000000,1.418220
LINE551,108.925264,-0.670206,0.000000,3.829872,0.000000,1.406782
LINE552,108.953180,-0.670143,0.000000,2.390324,0.000000,4.574318
LINE553,107.870612,-0.679617,0.000000,0.054916,0.000000,-1.520996
LINE554,104.360579,-0.692933,0.000000,1.205854,0.000000,-1.562584
LINE555,0.000000,0.241405,0.000000,3.809702,64.981501,1.248413
LINE556,703.945976,-0.694978,848.274140,3.312538,326.033496,1.233322
LINE557,0.000000,0.356395,0.000000,0.686071,0.000000,2.794571
LINE558,0.000000,1.852744,341.356389,3.278731,62.651851,1.250845
LINE559,0.000000,0.589127,0.000000,3.797350,0.000000,4.280509
LINE560,108.925264,-0.670206,0.000000,3.703128,0.000000,1.389887
LINE561,108.953180,-0.670143,0.000000,2.712707,0.000000,1.808588
LINE562,107.870612,-0.679617,0.000000,1.505390,0.000000,-1.493921
LINE563,104.360579,-0.692933,0.000000,0.645986,0.000000,-1.566143
LINE564,703.945976,-0.694978,848.274140,3.312538,326.033496,1.233322
LINE565,0.000000,4.666881,0.000000,0.667234,0.000000,2.435186
LINE566,0.000000,1.616602,113.468960,3.278739,62.651851,1.250845
LINE567,0.000000,4.449445,0.000000,4.365749,0.000000,1.223762
LINE568,0.000000,3.052181,227.887429,3.278727,0.000000,-1.287934
LINE569,108.925264,-0.670206,0.000000,3.508970,0.000000,1.477317
LINE570,104.360579,-0.692933,0.000000,0.660223,0.000000,-1.554888
LINE571,703.945976,-0.694978,848.274140,3.312538,326.033496,1.233322
LINE572,0.000000,1.755518,113.468960,3.278739,62.651851,1.250845
LINE573,0.000000,0.455109,0.000000,2.726361,0.000000,-1.547867
LINE574,0.000000,3.026882,227.887429,3.278727,0.000000,-1.298680
LINE575,108.925264,-0.670206,0.000000,3.531998,0.000000,1.531060
LINE576,104.360579,-0.692933,0.000000,0.476995,0.000000,-1.543445
LINE577,703.945976,-0.694978,848.274140,3.312538,326.033496,1.233322
LINE578,0.000000,-1.519785,113.468960,3.278739,62.651851,1.250845
LINE579,0.000000,3.185813,0.000000,0.492602,0.000000,-0.342266
LINE580,0.000000,1.877579,0.000000,1.202713,0.000000,4.348424
LINE581,0.000000,3.042787,227.887429,3.278727,0.000000,-1.344563
LINE582,108.925264,-0.670206,0.000000,3.300130,0.000000,1.616179
LINE583,104.360579,-0.692933,0.000000,0.636434,0.000000,-1.540124
LINE584,0.000000,-0.277122,105.979195,3.309220,0.000000,1.551808
LINE585,703.945976,-0.694978,742.295612,3.313012,326.033496,1.233322
LINE586,0.000000,-0.739789,113.468960,3.278739,62.651851,1.250845
LINE587,0.000000,2.108551,0.000000,-1.217852,0.000000,-1.035621
LINE588,0.000000,1.780666,0.000000,1.226173,0.000000,4.326232
LINE589,0.000000,3.050899,227.887429,3.278727,0.000000,-1.392096
LINE590,108.925264,-0.670206,0.000000,2.810992,0.000000,1.596126
LINE591,104.360579,-0.692933,0.000000,0.734687,0.000000,-1.484466
LINE592,0.000000,-0.302736,105.979195,3.309220,0.000000,1.553124
LINE593,703.945976,-0.694978,742.295612,3.313012,326.033496,1.233322
LINE594,0.000000,4.225982,113.468960,3.278739,0.000000,4.519536
LINE595,0.000000,4.659754,0.000000,4.025793,62.651851,1.250845
LINE596,0.000000,1.679185,0.000000,1.149657,0.000000,4.257313
LINE597,0.000000,3.036707,227.887429,3.278727,0.000000,-1.358744
LINE598,108.925264,-0.670206,0.000000,1.827402,0.000000,1.568880
LINE599,104.360579,-0.692933,0.000000,0.322079,0.000000,-1.549365
LINE600,0.000000,-0.351426,105.979195,3.309220,0.000000,1.547446
LINE601,0.000000,3.025591,0.000000,2.839491,64.842426,1.239581
LINE602,703.945976,-0.694978,742.295612,3.313012,261.192655,1.231768
LINE603,0.000000,-1.227790,113.468960,3.278739,0.000000,-1.505909
LINE604,0.000000,-0.230536,0.000000,0.723954,0.000000,1.605185
LINE605,0.000000,0.403685,0.000000,3.081685,0.000000,-1.045239
LINE606,0.000000,1.090943,0.000000,0.578143,62.651851,1.250845
LINE607,0.000000,-0.149575,0.000000,3.066158,0.000000,-0.085768
LINE608,0.000000,1.534030,0.000000,1.362757,0.000000,4.224408
LINE609,0.000000,3.029524,227.887429,3.278727,0.000000,-1.362738
LINE610,108.925264,-0.670206,0.000000,2.182580,0.000000,4.706290
LINE611,104.360579,-0.692933,0.000000,0.910940,0.000000,-1.547403
LINE612,0.000000,-0.266049,105.979195,3.309220,0.000000,1.534274
LINE613,0.000000,-0.251573,0.000000,3.221892,64.842426,1.239581
LINE614,703.945976,-0.694978,742.295612,3.313012,261.192655,1.231768
LINE615,0.000000,0.575983,113.468960,3.278739,0.000000,4.652683
LINE616,0.000000,4.295351,0.000000,1.491769,0.000000,-1.132276
LINE617,0.000000,4.553962,0.000000,1.412058,0.000000,-1.568894
LINE618,0.000000,2.541660,0.000000,0.353711,62.651851,1.250845
LINE619,0.000000,1.765899,0.000000,0.555527,0.000000,4.317234
LINE620,0.000000,2.998174,227.887429,3.278727,0.000000,-1.347236
LINE621,104.360579,-0.692933,0.000000,0.921425,0.000000,-1.340752
LINE622,0.000000,-0.425764,105.979195,3.309220,0.000000,1.561120
LINE623,0.000000,3.197291,108.667511,3.304679,0.000000,-1.558667
LINE624,703.945976,-0.694978,633.632521,3.314441,261.192655,1.231768
LINE625,0.000000,0.177460,113.468960,3.278739,0.000000,4.429513
LINE626,0.000000,0.866416,0.000000,0.930626,0.000000,3.755554
LINE627,0.000000,2.997140,227.887429,3.278727,0.000000,-1.358678
LINE628,104.360579,-0.692933,0.000000,3.166790,0.000000,1.640728
LINE629,0.000000,-0.779374,105.979195,3.309220,0.000000,1.549641
LINE630,0.000000,3.329080,108.667511,3.304679,0.000000,4.701411
LINE631,703.945976,-0.694978,633.632521,3.314441,261.192655,1.231768
LINE632,0.000000,0.000000,113.468960,3.278739,0.000000,-1.529373
LINE633,0.000000,2.298393,0.000000,0.240702,0.000000,4.167445
LINE634,0.000000,3.078572,227.887429,3.278727,0.000000,-1.362161
LINE635,0.000000,-0.732158,105.979195,3.309220,0.000000,1.535286
LINE636,0.000000,3.316837,108.667511,3.304679,0.000000,4.711580
LINE637,703.945976,-0.694978,633.632521,3.314441,261.192655,1.231768
LINE638,0.000000,0.000000,113.468960,3.278739,0.000000,-0.067519
LINE639,0.000000,1.352857,0.000000,0.500539,0.000000,4.260599
LINE640,0.000000,3.076344,227.887429,3.278727,0.000000,-1.375469
LINE641,0.000000,-0.994780,105.979195,3.309220,0.000000,1.533945
LINE642,0.000000,3.485138,108.667511,3.304679,0.000000,-1.568874
LINE643,703.945976,-0.694978,633.632521,3.314441,261.192655,1.231768
LINE644,0.000000,2.859103,0.000000,0.209334,0.000000,3.834765
LINE645,0.000000,3.111966,227.887429,3.278727,0.000000,-1.380675
LINE646,0.000000,-0.823712,105.979195,3.309220,0.000000,1.531024
LINE647,0.000000,3.284974,108.667511,3.304679,0.000000,4.627049
LINE648,703.945976,-0.694978,633.632521,3.314441,261.192655,1.231768
LINE649,0.000000,2.960901,0.000000,0.394877,0.000000,4.116972
LINE650,0.000000,2.710635,227.887429,3.278727,0.000000,-1.430784
LINE651,0.000000,-0.858826,105.979195,3.309220,0.000000,1.522710
LINE652,0.000000,3.460106,108.667511,3.304679,0.000000,4.591527
LINE653,703.945976,-0.694978,633.632521,3.314441,261.192655,1.231768
LINE654,0.000000,4.177620,0.000000,-0.312200,0.000000,1.677105
LINE655,0.000000,3.155557,113.982622,3.278811,0.000000,0.727400
LINE656,0.000000,-0.281993,113.904808,3.278643,0.000000,1.532015
LINE657,0.000000,4.250248,105.979195,3.309220,0.000000,1.536557
LINE658,0.000000,3.462407,108.667511,3.304679,0.000000,4.603254
LINE659,703.945976,-0.694978,633.632521,3.314441,261.192655,1.231768
LINE660,0.000000,4.037798,0.000000,0.116962,0.000000,1.801697
LINE661,0.000000,2.629544,113.982622,3.278811,0.000000,-0.194456
LINE662,0.000000,2.778891,113.904808,3.278643,0.000000,1.524188
LINE663,0.000000,-1.340347,105.979195,3.309220,0.000000,1.541002
LINE664,0.000000,3.523799,108.667511,3.304679,0.000000,4.650998
LINE665,703.945976,-0.694978,633.632521,3.314441,261.192655,1.231768
LINE666,0.000000,4.398610,0.000000,0.000334,0.000000,1.990536
LINE667,0.000000,1.546635,113.982622,3.278811,0.000000,1.527680
LINE668,0.000000,2.438353,113.904808,3.278643,0.000000,1.218013
LINE669,0.000000,-0.884108,105.979195,3.309220,0.000000,1.537732
LINE670,0.000000,3.508232,108.667511,3.304679,0.000000,0.760900
LINE671,299.245377,-0.709349,0.000000,0.164504,0.000000,-1.456078
LINE672,404.754342,-0.684354,633.632521,3.314441,261.192655,1.231768
LINE673,0.000000,-1.350377,0.000000,2.713594,0.000000,1.898343
LINE674,0.000000,3.262154,113.982622,3.278811,0.000000,1.556308
LINE675,0.000000,2.183928,113.904808,3.278643,0.000000,1.747346
LINE676,0.000000,-0.747926,105.979195,3.309220,0.000000,1.533094
LINE677,0.000000,3.977158,108.667511,3.304679,0.000000,1.543674
LINE678,299.245377,-0.709349,0.000000,0.228724,0.000000,-1.371157
LINE679,404.754342,-0.684354,633.632521,3.314441,261.192655,1.231768
LINE680,0.000000,1.214119,0.000000,1.214119,0.000000,4.411986
LINE681,0.000000,-0.021278,113.982622,3.278811,0.000000,1.577692
LINE682,0.000000,-0.566415,105.979195,3.309220,0.000000,1.522393
LINE683,0.000000,3.445052,108.667511,3.304679,0.000000,1.593173
LINE684,299.245377,-0.709349,0.000000,0.457539,0.000000,-0.840089
LINE685,404.754342,-0.684354,633.632521,3.314441,261.192655,1.231768
LINE686,0.000000,-0.700085,105.979195,3.309220,0.000000,1.527910
LINE687,0.000000,3.126187,108.667511,3.304679,0.000000,1.503466
LINE688,299.245377,-0.709349,0.000000,0.547207,0.000000,-1.234814
LINE689,0.000000,2.861049,0.000000,3.529387,130.321772,1.237793
LINE690,404.754342,-0.684354,633.632521,3.314441,130.875604,1.225769
LINE691,0.000000,-0.470856,105.979195,3.309220,0.000000,1.516584
LINE692,299.245377,-0.709349,0.000000,0.684628,0.000000,-1.202319
LINE693,0.000000,2.906136,0.000000,3.609803,65.170511,1.237830
LINE694,0.000000,2.940999,0.000000,-0.576771,65.151261,1.237757
LINE695,0.000000,0.629644,113.531161,3.303493,0.000000,0.583479
LINE696,404.754342,-0.684354,520.109648,3.316831,130.875604,1.225769
LINE697,0.000000,-0.721023,105.979195,3.309220,0.000000,1.522450
LINE698,299.245377,-0.709349,0.000000,0.379029,0.000000,-0.980614
LINE699,0.000000,2.987780,0.000000,3.393834,65.170511,1.237830
LINE700,0.000000,-0.018439,0.000000,3.600689,65.151261,1.237757
LINE701,0.000000,-1.074397,113.531161,3.303493,0.000000,1.541246
LINE702,404.754342,-0.684354,520.109648,3.316831,130.875604,1.225769
LINE703,0.000000,-0.701450,105.979195,3.309220,0.000000,1.523926
LINE704,299.245377,-0.709349,0.000000,0.402280,0.000000,-1.009809
LINE705,0.000000,3.063964,0.000000,3.418971,65.170511,1.237830
LINE706,404.754342,-0.684354,520.109648,3.316831,130.875604,1.225769
LINE707,0.000000,-0.734039,0.000000,0.371201,0.000000,0.447082
LINE708,0.000000,-0.760850,105.979195,3.309220,0.000000,1.527052
LINE709,299.245377,-0.709349,0.000000,0.342869,0.000000,-1.130416
LINE710,0.000000,3.115585,0.000000,3.390409,65.170511,1.237830
LINE711,204.361605,-0.671997,520.109648,3.316831,130.875604,1.225769
LINE712,200.424247,-0.696953,0.000000,0.865206,0.000000,1.903555
LINE713,0.000000,1.643236,0.000000,0.474499,0.000000,0.726325
LINE714,0.000000,-0.510046,105.979195,3.309220,0.000000,1.508330
LINE715,299.245377,-0.709349,0.000000,0.334078,0.000000,-1.114694
LINE716,0.000000,2.940548,0.000000,0.480170,65.170511,1.237830
LINE717,204.361605,-0.671997,520.109648,3.316831,130.875604,1.225769
LINE718,200.424247,-0.696953,0.000000,0.880950,0.000000,1.981667
LINE719,0.000000,4.587004,0.000000,0.345922,0.000000,1.625541
LINE720,0.000000,-0.884315,105.979195,3.309220,0.000000,1.488744
LINE721,299.245377,-0.709349,0.000000,0.347761,0.000000,-1.010919
LINE722,0.000000,2.915903,0.000000,0.809584,65.170511,1.237830
LINE723,204.361605,-0.671997,272.031937,3.319983,130.875604,1.225769
LINE724,0.000000,-1.527590,248.080545,3.313374,0.000000,1.577438
LINE725,200.424247,-0.696953,0.000000,0.865667,0.000000,2.028439
LINE726,0.000000,-0.484426,0.000000,0.481345,0.000000,1.295932
LINE727,0.000000,-0.405012,105.979195,3.309220,0.000000,-1.169460
LINE728,299.245377,-0.709349,0.000000,0.373972,0.000000,-0.901219
LINE729,0.000000,2.488788,0.000000,1.024276,65.170511,1.237830
LINE730,204.361605,-0.671997,272.031937,3.319983,130.875604,1.225769
LINE731,0.000000,-1.462191,248.080545,3.313374,0.000000,1.576834
LINE732,200.424247,-0.696953,0.000000,1.099262,0.000000,1.720206
LINE733,0.000000,2.191240,0.000000,0.463863,0.000000,-0.354516
LINE734,0.000000,4.122672,105.979195,3.309220,0.000000,0.763700
LINE735,299.245377,-0.709349,0.000000,0.361038,0.000000,-0.879876
LINE736,0.000000,2.786289,0.000000,0.339998,65.170511,1.237830
LINE737,204.361605,-0.671997,272.031937,3.319983,130.875604,1.225769
LINE738,0.000000,4.604448,248.080545,3.313374,0.000000,1.574954
LINE739,200.424247,-0.696953,0.000000,0.687557,0.000000,1.826751
LINE740,0.000000,3.508494,0.000000,0.298554,0.000000,0.820867
LINE741,0.000000,4.347506,105.979195,3.309220,0.000000,1.457824
LINE742,299.245377,-0.709349,0.000000,0.262792,0.000000,0.966824
LINE743,0.000000,3.069677,0.000000,2.580374,65.170511,1.237830
LINE744,204.361605,-0.671997,272.031937,3.319983,130.875604,1.225769
LINE745,0.000000,3.014046,124.116009,3.313524,0.000000,1.678398
LINE746,0.000000,3.707297,123.964539,3.313224,0.000000,1.541787
LINE747,200.424247,-0.696953,0.000000,0.716877,0.000000,1.797093
LINE748,0.000000,-0.428659,0.000000,0.004341,0.000000,1.122008
LINE749,0.000000,3.230894,105.979195,3.309220,0.000000,1.143034
LINE750,299.245377,-0.709349,0.000000,0.316060,0.000000,-0.567157
LINE751,0.000000,4.070062,0.000000,-0.966145,65.170511,1.237830
LINE752,204.361605,-0.671997,272.031937,3.319983,0.000000,1.133562
LINE753,0.000000,-0.300847,0.000000,3.240096,130.875604,1.225769
LINE754,0.000000,-1.553338,124.116009,3.313524,0.000000,1.154455
LINE755,0.000000,-0.656786,123.964539,3.313224,0.000000,1.539794
LINE756,200.424247,-0.696953,0.000000,0.634598,0.000000,1.842013
LINE757,0.000000,0.968471,0.000000,-0.025344,0.000000,-0.209241
LINE758,0.000000,3.024043,105.979195,3.309220,0.000000,-1.417174
LINE759,299.245377,-0.709349,0.000000,0.338757,0.000000,0.035289
LINE760,0.000000,0.477523,0.000000,0.477523,65.170511,1.237830
LINE761,204.361605,-0.671997,272.031937,3.319983,0.000000,1.110786
LINE762,0.000000,-0.298479,0.000000,3.236835,130.875604,1.225769
LINE763,0.000000,4.288309,123.964539,3.313224,0.000000,1.566712
LINE764,200.424247,-0.696953,0.000000,0.672130,0.000000,1.879479
LINE765,0.000000,4.269395,0.000000,0.362143,0.000000,-0.751215
LINE766,0.000000,-0.140996,105.979195,3.309220,0.000000,4.665021
LINE767,299.245377,-0.709349,0.000000,0.291166,0.000000,-0.683579
LINE768,0.000000,0.353972,0.000000,3.388840,65.170511,1.237830
LINE769,204.361605,-0.671997,272.031937,3.319983,0.000000,1.043745
LINE770,0.000000,0.060644,0.000000,3.529932,65.453721,1.225829
LINE771,0.000000,-0.299910,0.000000,3.231482,65.421883,1.225709
LINE772,0.000000,4.218227,123.964539,3.313224,0.000000,1.587081
LINE773,200.424247,-0.696953,0.000000,0.492299,0.000000,1.748403
LINE774,0.000000,2.918870,0.000000,0.772878,0.000000,-1.540163
LINE775,0.000000,2.317733,105.979195,3.309220,0.000000,1.599559
LINE776,299.245377,-0.709349,0.000000,0.203637,0.000000,0.120686
LINE777,0.000000,3.280156,0.000000,-0.602923,65.170511,1.237830
LINE778,204.361605,-0.671997,272.031937,3.319983,0.000000,0.982495
LINE779,0.000000,3.187642,0.000000,4.623747,65.453721,1.225829
LINE780,0.000000,-0.321205,0.000000,3.263877,65.421883,1.225709
LINE781,0.000000,3.137019,123.964539,3.313224,0.000000,1.594752
LINE782,200.424247,-0.696953,0.000000,0.494062,0.000000,1.727556
LINE783,0.000000,2.859895,0.000000,1.152941,0.000000,-0.969755
LINE784,0.000000,2.952761,105.979195,3.309220,0.000000,1.572755
LINE785,299.245377,-0.709349,0.000000,0.199300,0.000000,-0.241286
LINE786,204.361605,-0.671997,272.031937,3.319983,0.000000,0.927349
LINE787,0.000000,-0.224608,0.000000,3.261284,65.421883,1.225709
LINE788,0.000000,0.639492,123.964539,3.313224,0.000000,-1.377547
LINE789,200.424247,-0.696953,0.000000,0.505198,0.000000,1.841305
LINE790,0.000000,3.407854,0.000000,2.898793,0.000000,-1.055450
LINE791,199.495919,-0.709350,0.000000,0.172623,0.000000,-1.220703
LINE792,99.749457,-0.709346,0.000000,3.570952,0.000000,1.483043
LINE793,204.361605,-0.671997,272.031937,3.319983,0.000000,0.956468
LINE794,0.000000,-0.126743,0.000000,3.282448,65.421883,1.225709
LINE795,0.000000,0.038050,123.964539,3.313224,0.000000,1.540479
LINE796,200.424247,-0.696953,0.000000,0.489212,0.000000,1.958835
LINE797,0.000000,3.413372,0.000000,-0.329616,0.000000,1.608639
LINE798,199.495919,-0.709350,0.000000,0.138206,0.000000,-1.332971
LINE799,99.749457,-0.709346,0.000000,3.209307,0.000000,1.430404
LINE800,204.361605,-0.671997,0.000000,4.073703,0.000000,1.412360
LINE801,0.000000,3.477535,272.031937,3.319983,0.000000,-0.654347
LINE802,0.000000,-0.268426,0.000000,3.273790,65.421883,1.225709
LINE803,0.000000,2.738491,123.964539,3.313224,0.000000,1.490568
LINE804,200.424247,-0.696953,0.000000,0.505597,0.000000,3.642237
LINE805,0.000000,2.727234,0.000000,0.532349,0.000000,-0.610510
LINE806,199.495919,-0.709350,0.000000,0.333451,0.000000,-1.384939
LINE807,99.749457,-0.709346,0.000000,3.191314,0.000000,1.024901
LINE808,204.361605,-0.671997,0.000000,4.381489,0.000000,-0.147552
LINE809,0.000000,3.306546,272.031937,3.319983,0.000000,-0.472067
LINE810,0.000000,4.269524,0.000000,4.269524,0.000000,-1.514396
LINE811,0.000000,-0.020595,0.000000,2.924065,65.421883,1.225709
LINE812,0.000000,2.660097,123.964539,3.313224,0.000000,4.476870
LINE813,200.424247,-0.696953,0.000000,0.650637,0.000000,4.411591
LINE814,0.000000,-0.531051,0.000000,3.797394,0.000000,4.595365
LINE815,199.495919,-0.709350,0.000000,0.198946,0.000000,-1.509180
LINE816,99.749457,-0.709346,0.000000,3.108085,0.000000,-1.367094
LINE817,204.361605,-0.671997,0.000000,4.010418,0.000000,1.126772
LINE818,0.000000,3.518364,272.031937,3.319983,0.000000,-0.372537
LINE819,0.000000,0.533553,0.000000,0.379031,0.000000,1.526648
LINE820,0.000000,0.131415,0.000000,1.943242,65.421883,1.225709
LINE821,200.424247,-0.696953,0.000000,0.793040,0.000000,4.436819
LINE822,0.000000,3.587363,0.000000,4.401625,0.000000,1.372282
LINE823,199.495919,-0.709350,0.000000,0.211139,0.000000,-1.507058
LINE824,204.361605,-0.671997,0.000000,4.223234,0.000000,-1.477459
LINE825,0.000000,3.447586,272.031937,3.319983,0.000000,-0.834783
LINE826,0.000000,-0.329633,0.000000,1.236971,0.000000,3.685927
LINE827,0.000000,-0.573615,0.000000,1.410974,65.421883,1.225709
LINE828,200.424247,-0.696953,0.000000,0.463185,0.000000,4.400897
LINE829,0.000000,-0.455674,0.000000,3.666554,0.000000,1.600570
LINE830,199.495919,-0.709350,0.000000,2.277041,0.000000,1.002840
LINE831,204.361605,-0.671997,0.000000,-0.723144,0.000000,-1.511086
LINE832,0.000000,3.294725,272.031937,3.319983,0.000000,-1.167793
LINE833,0.000000,3.867207,0.000000,1.647528,0.000000,-0.539843
LINE834,0.000000,-0.575001,0.000000,-0.150408,65.421883,1.225709
LINE835,200.424247,-0.696953,0.000000,0.687834,0.000000,4.325347
LINE836,199.495919,-0.709350,0.000000,3.344414,0.000000,-1.261605
LINE837,204.361605,-0.671997,0.000000,-0.145161,0.000000,4.697080
LINE838,0.000000,3.460176,272.031937,3.319983,0.000000,-1.083230
LINE839,0.000000,2.201668,0.000000,0.449513,0.000000,1.431792
LINE840,200.424247,-0.696953,0.000000,0.751640,0.000000,4.247645
LINE841,199.495919,-0.709350,0.000000,3.204704,0.000000,-1.566233
LINE842,204.361605,-0.671997,0.000000,0.008711,0.000000,4.693203
LINE843,0.000000,-1.527658,272.031937,3.319983,0.000000,1.461635
LINE844,0.000000,2.408110,0.000000,1.327506,0.000000,-1.101640
LINE845,0.000000,0.000000,0.000000,0.000000,0.000000,0.000000
LINE846,200.424247,-0.696953,0.000000,0.865702,0.000000,4.302333
LINE847,199.495919,-0.709350,0.000000,3.094802,0.000000,4.688224
LINE848,204.361605,-0.671997,0.000000,0.136796,0.000000,4.686479
LINE849,0.000000,4.226646,272.031937,3.319983,0.000000,1.258299
LINE850,0.000000,2.176372,0.000000,1.271279,0.000000,-0.900317
LINE851,0.000000,-0.131782,0.000000,2.334472,0.000000,4.635393
LINE852,200.424247,-0.696953,0.000000,0.846757,0.000000,4.078362
LINE853,199.495919,-0.709350,0.000000,3.398686,0.000000,-1.283290
LINE854,204.361605,-0.671997,0.000000,0.128411,0.000000,4.654719
LINE855,0.000000,4.644870,272.031937,3.319983,0.000000,1.348281
LINE856,0.000000,2.304422,0.000000,1.098907,0.000000,-0.871494
LINE857,0.000000,1.843350,0.000000,-0.955446,0.000000,-0.446134
LINE858,200.424247,-0.696953,0.000000,0.685846,0.000000,4.477576
LINE859,99.567875,-0.709795,0.000000,3.183575,0.000000,1.636069
LINE860,99.928064,-0.708906,0.000000,-1.105245,0.000000,2.556088
LINE861,204.361605,-0.671997,0.000000,0.141891,0.000000,4.663201
LINE862,0.000000,4.384268,272.031937,3.319983,0.000000,1.378923
LINE863,0.000000,2.066111,0.000000,0.910558,0.000000,-0.909370
LINE864,0.000000,2.030076,0.000000,2.297768,0.000000,1.881387
LINE865,200.424247,-0.696953,0.000000,0.516868,0.000000,3.916483
LINE866,204.361605,-0.671997,0.000000,0.170014,0.000000,4.679779
LINE867,0.000000,4.644870,272.031937,3.319983,0.000000,1.503278
LINE868,0.000000,2.261076,0.000000,1.071522,0.000000,-1.037122
LINE869,0.000000,3.034964,0.000000,0.673399,0.000000,0.802052
LINE870,200.424247,-0.696953,0.000000,0.979880,0.000000,4.575535
LINE871,204.361605,-0.671997,0.000000,0.178550,0.000000,4.666401
LINE872,0.000000,3.537722,136.209409,3.320341,0.000000,1.440859
LINE873,0.000000,4.644870,135.822546,3.319625,0.000000,1.565697
LINE874,0.000000,2.168812,0.000000,2.016385,0.000000,-1.339934
LINE875,0.000000,0.084758,0.000000,2.433270,0.000000,1.777801
LINE876,200.424247,-0.696953,0.000000,1.367127,0.000000,4.621111
LINE877,204.361605,-0.671997,0.000000,0.167548,0.000000,4.674178
LINE878,0.000000,4.644870,136.209409,3.320341,0.000000,1.503278
LINE879,0.000000,0.177460,135.822546,3.319625,0.000000,1.565697
LINE880,0.000000,0.996568,0.000000,1.216826,0.000000,3.689394
LINE881,0.000000,3.261663,0.000000,0.395102,0.000000,-0.773466
LINE882,200.424247,-0.696953,0.000000,0.599954,0.000000,4.669454
LINE883,204.361605,-0.671997,0.000000,0.138861,0.000000,4.683456
LINE884,0.000000,3.537722,136.209409,3.320341,0.000000,4.644870
LINE885,0.000000,0.000000,135.822546,3.319625,0.000000,0.000000
LINE886,200.424247,-0.696953,0.000000,0.492106,0.000000,1.251718
LINE887,102.207197,-0.671824,0.000000,0.111373,0.000000,4.654164
LINE888,102.154411,-0.672170,0.000000,4.002179,0.000000,1.675398
LINE889,0.000000,3.319053,136.209409,3.320341,0.000000,-1.513960
LINE890,200.424247,-0.696953,0.000000,-0.111382,0.000000,4.498101
LINE891,102.207197,-0.671824,0.000000,0.102555,0.000000,4.687076
LINE892,102.154411,-0.672170,0.000000,4.056333,0.000000,1.600724
LINE893,0.000000,4.644870,136.209409,3.320341,0.000000,3.074074
LINE894,100.463022,-0.696339,0.000000,-1.292422,0.000000,1.605845
LINE895,99.961262,-0.697570,0.000000,3.685674,0.000000,4.634266
LINE896,102.207197,-0.671824,0.000000,0.163447,0.000000,4.709964
LINE897,102.154411,-0.672170,0.000000,4.107290,0.000000,4.292353
LINE898,0.000000,0.000000,136.209409,3.320341,0.000000,0.000000
LINE899,100.463022,-0.696339,0.000000,-1.203500,0.000000,1.665750
LINE900,102.207197,-0.671824,0.000000,-0.001619,0.000000,4.610936
LINE901,102.207197,-0.671824,0.000000,-0.117358,0.000000,4.602092
LINE902,102.207197,-0.671824,0.000000,3.843525,0.000000,4.632489
LINE903,102.207197,-0.671824,0.000000,4.335149,0.000000,4.448077
LINE904,102.207197,-0.671824,0.000000,3.795082,0.000000,4.628887
LINE905,102.207197,-0.671824,0.000000,3.276142,0.000000,1.664142
